%%%%%%%%%%%%%%%%%%%%%%%%%%%%%%%%%%%%%%%%%%%%%%%%%%%%%%%%%%%%%%%%%%%%%%%%%%%%%%%%
%                                                                              %
% SU2 configuration file                                                       %
% Case description: NACA0012 Laminar simulation (Re 5000)                      %
% Author: Francisco Palacios                                                   %
% Institution: Stanford University                                             %
% Date: Sep 28, 2012                                                           %
% File Version 5.0.0 "Raven"                                                %
%                                                                              %
%%%%%%%%%%%%%%%%%%%%%%%%%%%%%%%%%%%%%%%%%%%%%%%%%%%%%%%%%%%%%%%%%%%%%%%%%%%%%%%%
% ------------- DIRECT, ADJOINT, AND LINEARIZED PROBLEM DEFINITION ------------%
%
% Physical governing equations (EULER, NAVIER_STOKES, NS_PLASMA)
%                               
SOLVER = EULER
%REF_DIMENSIONALIZATION= DIMENSIONAL ?? comment or uncomment
MATH_PROBLEM= DIRECT
%
RESTART_SOL= NO
READ_BINARY_RESTART= NO
%
OUTPUT_WRT_FREQ=500
SCREEN_WRT_FREQ_INNER= 1

% -------------------- COMPRESSIBLE FREE-STREAM DEFINITION --------------------%
%
AOA= 0.0
FREESTREAM_TEMPERATURE= 222.773
FREESTREAM_PRESSURE= 26201.65
MACH_NUMBER= 0.735
SIDESLIP_ANGLE= 0.0

% ------------------------- UNSTEADY SIMULATION -------------------------------%
%%%%%%n
% Unsteady simulation (NO, TIME_STEPPING, DUAL_TIME_STEPPING-1ST_ORDER, 
%                      DUAL_TIME_STEPPING-2ND_ORDER, HARMONIC_BALANCE)
TIME_MARCHING= HARMONIC_BALANCE
%
% Number of time instances (Zones)
TIME_INSTANCES= 3
% 
% Period of Harmonic Balance simulation
HB_PERIOD= 0.1257
%
HB_PRECONDITION= YES
% List of frequencies to be resolved for harmonic balance method
OMEGA_HB = (0,50.,-50)
% 10 periods: 0.5888756403287397
%
% Number of internal iterations (dual time method)
%%INNER_ITER= 110
ITER= 10000
%
% Starting direct iteration for unsteady adjoint
%%UNST_ADJOINT_ITER= 251
% ----------------------- DYNAMIC MESH DEFINITION -----------------------------%
SURFACE_MOVEMENT= (DEFORMING, DEFORMING)
MODAL_IMPOSED= YES
BOUNDARY_VELOCITY= NO
HB_VELOCITY= YES
MODAL_AEROELASTICITY= YES
%%HB_AEROELASTICITY= YES
%
%
% Motion mach number (non-dimensional). Used for initializing a viscous flow
% with the Reynolds number and for computing force coeffs. with dynamic meshes.
MACH_MOTION= 0.78
%
% Moving wall boundary marker(s) (NONE = no marker, ignored for RIGID_MOTION)
MARKER_MOVING= (wing, strut)

% -------------- AEROELASTIC SIMULATION (Typical Section Model) ---------------%
% Activated by GRID_MOVEMENT_KIND option
%
STRUCTURE_FILENAME= StructuralModel
STRUCTURAL_POINTS= 423  %% to remove
STRUCTURAL_DOFS= 3
RBF_METHOD= 2
%
ROOT_WING_CHORD= <<python_parameters(output="ROOT_WING_CHORD")>>
TIP_WING_CHORD= <<python_parameters(output="TIP_WING_CHORD")>>
WING_SPAN=  <<python_parameters(output="WING_SPAN")>>
WING_VOL_TRUN_CONE= <<python_parameters(output="WING_VOL_TRUN_CONE")>>
SCALE_PARAM= <<python_parameters(output="SCALE_PARAM")>>
FLUTTER_SPEED_INDEX = <<python_parameters(output="FLUTTER_SPEED_INDEX")>>
AIRFOIL_MASS_RATIO = <<python_parameters(output="AIRFOIL_MASS_RATIO")>>
%
% Solve the aeroelastic equations every given number of internal iterations
AEROELASTIC_MODES= 4
%
OMEGA_AERO= (6.0947   21.0989   25.0699   82.9318)
%
OMEGA_MODE= (50.0 50. 50. 50.)
AMPL_MODE = (0.01 0.01 0.01 0.01)

% ---------------------- REFERENCE VALUE DEFINITION ---------------------------%
%
%
%guesstimate for the ref_origin_moment_xyz
REF_ORIGIN_MOMENT_X = 28.76
REF_ORIGIN_MOMENT_Y = 10
REF_ORIGIN_MOMENT_Z = 2.77
REF_LENGTH= 3.04
REF_AREA= 80.0

% -------------------- BOUNDARY CONDITION DEFINITION --------------------------%
%
%
MARKER_FAR= ( farfield )
MARKER_SYM= ( symmetry )
MARKER_EULER= ( wing, strut, fuselage, wing_fairing, strut_fairing )
MARKER_PLOTTING= ( wing, strut, fuselage, wing_fairing, strut_fairing )
MARKER_MONITORING= ( wing, strut, fuselage, wing_fairing, strut_fairing )
%

% ------------- COMMON PARAMETERS DEFINING THE NUMERICAL METHOD ---------------%
%
%
NUM_METHOD_GRAD= WEIGHTED_LEAST_SQUARES
CFL_NUMBER= 10
CFL_ADAPT= NO
CFL_ADAPT_PARAM= ( 1.5, 0.5, 1.0, 100.0 )
RK_ALPHA_COEFF= ( 0.66667, 0.66667, 1.000000 )
%%ITER= 10000
LINEAR_SOLVER= FGMRES
LINEAR_SOLVER_ERROR= 1E-4
LINEAR_SOLVER_PREC= ILU
LINEAR_SOLVER_ITER= 10
% -------------------- FLOW NUMERICAL METHOD DEFINITION -----------------------%
%
%
CONV_NUM_METHOD_FLOW= ROE
MUSCL_FLOW= YES
SLOPE_LIMITER_FLOW= VENKATAKRISHNAN_WANG
VENKAT_LIMITER_COEFF= 0.01
JST_SENSOR_COEFF= ( 0.55, 0.02 ) 
TIME_DISCRE_FLOW= EULER_IMPLICIT
%
%
% --------------------------- CONVERGENCE PARAMETERS --------------------------%
%
%
%CONV_CRITERIA= RESIDUAL
CONV_RESIDUAL_MINVAL= -10
CONV_STARTITER= 10
CONV_CAUCHY_ELEMS= 300
CONV_CAUCHY_EPS= 8E-6
CONV_FIELD= (DRAG, LIFT)

% -------------------------- MULTIGRID PARAMETERS -----------------------------%
%
%
% Multi-Grid Levels (0 = no multi-grid)
MGLEVEL= 0
MGCYCLE= V_CYCLE
MG_PRE_SMOOTH= ( 1, 2, 2, 2 )
MG_POST_SMOOTH= ( 0, 0, 0, 0 )
MG_CORRECTION_SMOOTH= ( 0, 0, 0, 0 )
MG_DAMP_RESTRICTION= 0.85
MG_DAMP_PROLONGATION= 0.85
%
%%%%%n
% ------------------------ GRID DEFORMATION PARAMETERS ------------------------%
%
% Linear solver or smoother for implicit formulations (FGMRES, RESTARTED_FGMRES, BCGSTAB)
DEFORM_LINEAR_SOLVER= FGMRES
%
% Preconditioner of the Krylov linear solver (ILU, LU_SGS, JACOBI)
DEFORM_LINEAR_SOLVER_PREC= LU_SGS
%
% Number of smoothing iterations for mesh deformation
DEFORM_LINEAR_SOLVER_ITER= 15
%
% Number of nonlinear deformation iterations (surface deformation increments)
%
% Print the residuals during mesh deformation to the console (YES, NO)
DEFORM_CONSOLE_OUTPUT= YES
%
% Minimum residual criteria for the linear solver convergence of grid deformation
DEFORM_LINEAR_SOLVER_ERROR= 1E-9
%
% Type of element stiffness imposed for FEA mesh deformation (INVERSE_VOLUME, 
%                                          WALL_DISTANCE, CONSTANT_STIFFNESS)
%DEFORM_STIFFNESS_TYPE= WALL_DISTANCE
%

% ------------------------- INPUT/OUTPUT INFORMATION --------------------------%
%
% Mesh input file
MESH_FILENAME= 0901_inv.su2
MESH_FORMAT= SU2
TABULAR_FORMAT= CSV
SCREEN_OUTPUT= (INNER_ITER, WALL_TIME, CAUCHY_DRAG, RMS_DENSITY, AERO_COEFF)
HISTORY_OUTPUT= (ITER, FLOW_COEFF, CAUCHY, RMS_RES, AERO_COEFF)
VOLUME_OUTPUT= (COORDINATES, SOLUTION, PRIMITIVE, MESH_QUALITY)
OUTPUT_FILES= ( RESTART_ASCII, SURFACE_CSV, PARAVIEW, SURFACE_PARAVIEW)
%
%
SOLUTION_FILENAME= restart_flow_onera_inv_0901.csv
RESTART_FILENAME= restart_flow_onera_inv_0901.csv
CONV_FILENAME= history_onera_inv_0901.csv
VOLUME_FILENAME= soln_volume_onera_inv_0901.csv
SURFACE_FILENAME= soln_surface_onera_inv_0901.csv 
%
WRT_FORCES_BREAKDOWN= YES
